24
Energy = -464.3698703424
C    -2.5026274   -0.0724019   -1.3986821 
C    -2.5112441    1.1665910   -0.7621894 
C    -2.4902291   -1.2429639   -0.6436754 
C    -2.5066061    1.2350411    0.6292277 
C    -2.4854422   -1.1745361    0.7477358 
C    -2.4931571    0.0644791    1.3842461 
H    -2.5012122   -0.1257285   -2.4835150 
H    -2.4817639   -2.2090658   -1.1403444 
H    -2.5109817    2.2011874    1.1258699 
H    -2.5189160    2.0792619   -1.3512531 
H    -2.4728362   -2.0871774    1.3368167 
H    -2.4843205    0.1178628    2.4690721 
H     1.2416000   -2.1333460   -0.0047103 
C     1.7935779   -1.1973074    0.0004345 
H     0.0180537    0.0182478   -0.0208384 
H     3.7244769   -2.1503454    0.0236414 
C     1.1032960    0.0122123   -0.0088315 
C     3.1863766   -1.2064763    0.0163943 
C     1.8078371    1.2134970   -0.0020501 
C     3.8900637   -0.0042473    0.0231350 
H     1.2671712    2.1560776   -0.0091872 
H     4.9763893   -0.0106529    0.0356466 
C     3.2006377    1.2061777    0.0139054 
H     3.7498565    2.1436135    0.0191515 
