24
Energy =
C     0.5753853    1.0640522   -1.8830651 
H     1.1785441    1.9615728   -1.8905233 
C     1.1857732   -0.1867424   -1.9695478 
H     2.2621766   -0.2588061   -2.0414102 
C     0.4083280   -1.3438554   -1.9619112 
H     0.8818217   -2.3135613   -2.0305290 
C    -0.9795742   -1.2512303   -1.8646992 
H    -1.5825763   -2.1488993   -1.8591914 
C    -1.5906722   -0.0009330   -1.7756495 
H    -2.6669081    0.0712709   -1.6995620 
C    -0.8130805    1.1572337   -1.7863175 
H    -1.2874459    2.1270280   -1.7214653 
C     0.4122272    1.9697847    1.9980339 
H     0.0540821    2.1355155    0.9847412 
H     1.4368107    2.3264942    2.0794754 
H    -0.1918696    2.5434205    2.6963866 
C     0.3753809    0.5166217    2.4137427 
O     0.6600092    0.1642603    3.5522807 
N     0.0029856   -0.3490950    1.4345017 
H    -0.1581423    0.0088957    0.5084334 
C    -0.0338073   -1.7759741    1.6525888 
H     0.0442803   -1.9428817    2.7225849 
H    -0.9690477   -2.1943247    1.2858507 
H     0.7953192   -2.2798469    1.1552514 